NP5
  CCTOOLS-0919241041

 39 40  0  0  0  0  0  0  0  0999 V2000
   -0.7150    1.2020   -0.5050 C   0  0  0  0  0
   -1.2540    2.4230   -0.3200 O   0  0  0  0  0
    0.7090    0.9730   -0.2090 C   0  0  0  0  0
    1.5070    2.0250    0.2660 C   0  0  0  0  0
    2.8470    1.8040    0.5340 C   0  0  0  0  0
    3.3960    0.5460    0.3340 C   0  0  0  0  0
    2.6070   -0.4990   -0.1390 C   0  0  0  0  0
    1.2720   -0.2930   -0.4040 C   0  0  0  0  0
    0.4200   -1.4270   -0.9110 C   0  0  0  0  0
   -0.6920   -1.6980    0.0700 C   0  0  0  0  0
   -1.5230   -2.9480   -0.0600 C   0  0  0  0  0
   -2.7550   -2.8380    0.8400 C   0  0  0  0  0
   -3.8120   -1.9700    0.1540 C   0  0  0  0  0
   -3.6960   -0.5520    0.6530 C   0  0  0  0  0
   -3.6580    0.4420   -0.1990 C   0  0  0  0  0
   -3.5410    1.8580    0.3010 C   0  0  0  0  0
   -2.6480    2.6620   -0.6460 C   0  0  0  0  0
   -1.4040    0.2890   -0.9150 O   0  0  0  0  0
    0.9680    3.2550    0.4620 O   0  0  0  0  0
    4.7110    0.3340    0.5960 O   0  0  0  0  0
    3.3070   -2.0670   -0.3930 CL  0  0  0  0  0
   -0.9170   -0.9130    0.9590 O   0  0  0  0  0
    3.4650    2.6110    0.9000 H   0  0  0  0  0
    1.0340   -2.3210   -1.0210 H   0  0  0  0  0
   -0.0060   -1.1580   -1.8780 H   0  0  0  0  0
   -0.9290   -3.8120    0.2410 H   0  0  0  0  0
   -1.8390   -3.0680   -1.0960 H   0  0  0  0  0
   -2.4720   -2.3830    1.7900 H   0  0  0  0  0
   -3.1630   -3.8320    1.0210 H   0  0  0  0  0
   -4.8050   -2.3560    0.3840 H   0  0  0  0  0
   -3.6540   -1.9900   -0.9240 H   0  0  0  0  0
   -3.6450   -0.3550    1.7140 H   0  0  0  0  0
   -3.7120    0.2470   -1.2600 H   0  0  0  0  0
   -3.1020    1.8560    1.2990 H   0  0  0  0  0
   -4.5310    2.3130    0.3410 H   0  0  0  0  0
   -2.8690    3.7240   -0.5390 H   0  0  0  0  0
   -2.8390    2.3530   -1.6740 H   0  0  0  0  0
    1.0700    3.7390   -0.3690 H   0  0  0  0  0
    4.7710    0.0600    1.5220 H   0  0  0  0  0
  1  2  1  0  0  0
  1  3  1  0  0  0
  1 18  2  0  0  0
  2 17  1  0  0  0
  3  4  2  0  0  0
  3  8  1  0  0  0
  4  5  1  0  0  0
  4 19  1  0  0  0
  5  6  2  0  0  0
  5 23  1  0  0  0
  6  7  1  0  0  0
  6 20  1  0  0  0
  7  8  2  0  0  0
  7 21  1  0  0  0
  8  9  1  0  0  0
  9 10  1  0  0  0
  9 24  1  0  0  0
  9 25  1  0  0  0
 10 11  1  0  0  0
 10 22  2  0  0  0
 11 12  1  0  0  0
 11 26  1  0  0  0
 11 27  1  0  0  0
 12 13  1  0  0  0
 12 28  1  0  0  0
 12 29  1  0  0  0
 13 14  1  0  0  0
 13 30  1  0  0  0
 13 31  1  0  0  0
 14 15  2  0  0  0
 14 32  1  0  0  0
 15 16  1  0  0  0
 15 33  1  0  0  0
 16 17  1  0  0  0
 16 34  1  0  0  0
 16 35  1  0  0  0
 17 36  1  0  0  0
 17 37  1  0  0  0
 19 38  1  0  0  0
 20 39  1  0  0  0
M  END
$$$$
