RDC
  CCTOOLS-0919241041

 42 44  0  0  1  0  0  0  0  0999 V2000
   -1.2100    0.1710   -0.4070 C   0  0  0  0  0
   -1.0810    0.0960    1.0550 C   0  0  0  0  0
   -2.1890   -0.2290    1.8520 C   0  0  0  0  0
   -2.0510   -0.2960    3.2280 C   0  0  0  0  0
   -0.8200   -0.0430    3.8140 C   0  0  0  0  0
    0.2800    0.2810    3.0260 C   0  0  0  0  0
    0.1550    0.3530    1.6580 C   0  0  0  0  0
    1.3430    0.7090    0.8040 C   0  0  0  0  0
    2.2410   -0.4890    0.6520 C   0  0  0  0  0
    2.6820   -0.8860   -0.6240 C   0  0  0  0  0
    2.2140   -0.2620   -1.7350 C   0  0  0  0  0
    2.7070   -0.6460   -3.0540 C   0  0  0  0  0
    2.1380   -0.1630   -4.1610 C   0  0  0  0  0
    0.9610    0.7720   -4.0670 C   0  0  0  0  0
   -0.4170    0.1540   -3.8180 C   0  0  0  0  0
   -1.4150    0.9550   -2.9810 C   0  0  0  0  0
   -2.5040    0.0180   -2.4510 C   0  0  0  0  0
   -2.3290   -1.3700   -3.0700 C   0  0  0  0  0
   -2.3930   -0.0770   -1.0050 O   0  0  0  0  0
   -0.2420    0.4610   -1.0830 O   0  0  0  0  0
   -3.3920   -0.4770    1.2760 O   0  0  0  0  0
   -0.6890   -0.1110    5.1640 O   0  0  0  0  0
    1.8160    0.5960    3.7720 CL  0  0  0  0  0
    2.5870   -1.1150    1.6330 O   0  0  0  0  0
   -0.0330    0.6860   -5.0880 O   0  0  0  0  0
   -2.9020   -0.5460    3.8440 H   0  0  0  0  0
    1.8980    1.5200    1.2750 H   0  0  0  0  0
    0.9990    1.0310   -0.1780 H   0  0  0  0  0
    3.3930   -1.6940   -0.7210 H   0  0  0  0  0
    1.4750    0.5190   -1.6410 H   0  0  0  0  0
    3.5440   -1.3250   -3.1370 H   0  0  0  0  0
    2.5260   -0.4440   -5.1310 H   0  0  0  0  0
    1.1620    1.7470   -3.6260 H   0  0  0  0  0
   -0.4680   -0.9290   -3.7140 H   0  0  0  0  0
   -1.8710    1.7280   -3.6000 H   0  0  0  0  0
   -0.8960    1.4190   -2.1430 H   0  0  0  0  0
   -3.4840    0.4130   -2.7150 H   0  0  0  0  0
   -1.4120   -1.8230   -2.6920 H   0  0  0  0  0
   -3.1800   -1.9960   -2.8040 H   0  0  0  0  0
   -2.2690   -1.2790   -4.1550 H   0  0  0  0  0
   -3.8560    0.3690    1.2230 H   0  0  0  0  0
   -0.8780    0.7720    5.5080 H   0  0  0  0  0
  1  2  1  0  0  0
  1 19  1  0  0  0
  1 20  2  0  0  0
  2  3  2  0  0  0
  2  7  1  0  0  0
  3  4  1  0  0  0
  3 21  1  0  0  0
  4  5  2  0  0  0
  4 26  1  0  0  0
  5  6  1  0  0  0
  5 22  1  0  0  0
  6  7  2  0  0  0
  6 23  1  0  0  0
  7  8  1  0  0  0
  8  9  1  0  0  0
  8 27  1  0  0  0
  8 28  1  0  0  0
  9 10  1  0  0  0
  9 24  2  0  0  0
 10 11  2  0  0  0
 10 29  1  0  0  0
 11 12  1  0  0  0
 11 30  1  0  0  0
 12 13  2  0  0  0
 12 31  1  0  0  0
 13 14  1  0  0  0
 13 32  1  0  0  0
 14 15  1  0  0  0
 14 25  1  0  0  0
 14 33  1  0  0  0
 15 16  1  0  0  0
 15 25  1  0  0  0
 15 34  1  0  0  0
 16 17  1  0  0  0
 16 35  1  0  0  0
 16 36  1  0  0  0
 17 18  1  0  0  0
 17 19  1  0  0  0
 17 37  1  0  0  0
 18 38  1  0  0  0
 18 39  1  0  0  0
 18 40  1  0  0  0
 21 41  1  0  0  0
 22 42  1  0  0  0
M  END
$$$$
